[General]
sim-time-limit = 4000s
network = artery.rosomnet.World


outputvectormanager-class="omnetpp::envir::SqliteOutputVectorManager"
outputscalarmanager-class="omnetpp::envir::SqliteOutputScalarManager"

*.radioMedium.pathLossType = "FreeSpacePathLoss"

*.car[*].wlan[*].typename = "VanetNic"
*.car[*].wlan[*].radio.channelNumber = 180
*.car[*].wlan[*].radio.carrierFrequency = 5.9 GHz
*.car[*].wlan[*].radio.transmitter.power = 200 mW
*.car[*].wlan[*].radio.receiver.energyDetection = -85 dBm
*.car[*].wlan[*].radio.receiver.sensitivity = -82 dBm
*.car[*].wlan[*].**.statistic-recording = false

*.car[*].middleware.updateInterval = 0.1s
*.car[*].middleware.datetime = "2018-01-26 09:15:00"
*.car[*].middleware.services = xmldoc("services.xml")
*.car[*].middleware.CA.measureLatency = true
*.car[*].middleware.CA.latency.result-recording-modes = +vector
*.car[*].middleware.CA.transmission.result-recording-modes = all
*.car[*].middleware.CA.reception.result-recording-modes = all

#*.car[*].mobility.initFromDisplayString = false

#*.playgroundSizeX = 10000m
#*.playgroundSizeY = 10000m

**.constraintAreaMinX = 0m
**.constraintAreaMinY = 0m
**.constraintAreaMinZ = 0m
**.constraintAreaMaxX = 1500m  # example value
**.constraintAreaMaxY = 1500m  # example value
**.constraintAreaMaxZ = 100m  # example value

**.mobility.initFromDisplayString = false # ignore displayString positions

*.car[0].mobility.initialX = 20m
*.car[0].mobility.initialY = 20m
*.car[0].mobility.initialZ = 0m

*.car[1].mobility.initialX = 50m
*.car[1].mobility.initialY = 50m
*.car[1].mobility.initialZ = 0m


# environment
#**.spaceMinX = -1000m
#**.spaceMinY = -1000m
#**.spaceMinZ = -1000m
#**.spaceMaxX = 1000m
#**.spaceMaxY = 1000m
#**.spaceMaxZ = 1000m


[Config cam_bsp]
# default values of CaService are according to Basic System Profile

[Config cam_dynamic]
*.car[*].middleware.CA.withDccRestriction = false

[Config cam_fixed]
*.car[*].middleware.CA.withDccRestriction = false
*.car[*].middleware.CA.fixedRate = true
*.car[*].middleware.CA.minInterval = 0.1 s
